PDB
  -OEChem-03222418073D

 36 38  0     1  0  0  0  0  0999 V2000
   -4.1440    0.8200    0.3890 C   0  0  0  0  0  0  0  0  0  0  0  0
   -4.8310    2.0190    0.3690 C   0  0  0  0  0  0  0  0  0  0  0  0
   -4.4040    3.0470   -0.4510 C   0  0  0  0  0  0  0  0  0  0  0  0
   -3.2890    2.8800   -1.2520 C   0  0  0  0  0  0  0  0  0  0  0  0
    4.9560    1.9260   -0.6420 F   0  0  0  0  0  0  0  0  0  0  0  0
   -2.5990    1.6840   -1.2360 C   0  0  0  0  0  0  0  0  0  0  0  0
    6.1370    0.3350    0.4950 F   0  0  0  0  0  0  0  0  0  0  0  0
   -3.0200    0.6510   -0.4100 C   0  0  0  0  0  0  0  0  0  0  0  0
    4.6660    1.6810    1.6100 F   0  0  0  0  0  0  0  0  0  0  0  0
   -2.3180   -0.5620   -0.3880 N   0  0  0  0  0  0  0  0  0  0  0  0
   -2.8840   -1.8400   -0.4820 N   0  0  0  0  0  0  0  0  0  0  0  0
   -1.9380   -2.7370   -0.4270 C   0  0  0  0  0  0  0  0  0  0  0  0
   -0.9750   -0.6990   -0.2760 C   0  0  0  0  0  0  0  0  0  0  0  0
   -0.7050   -2.0700   -0.2920 C   0  0  0  0  0  0  0  0  0  0  0  0
    0.0750    0.1730   -0.1580 N   0  0  0  0  0  0  0  0  0  0  0  0
    1.3380   -0.2790   -0.0630 C   0  0  0  0  0  0  0  0  0  0  0  0
    1.6430   -1.5470   -0.0770 N   0  0  0  0  0  0  0  0  0  0  0  0
    0.6930   -2.4970   -0.1840 C   0  0  0  0  0  0  0  0  0  0  0  0
    0.9890   -3.6800   -0.1920 O   0  0  0  0  0  0  0  0  0  0  0  0
    2.4530    0.7260    0.0640 C   0  0  0  0  0  0  0  0  0  0  0  0
    3.7930   -0.0070    0.1560 C   0  0  1  0  0  0  0  0  0  0  0  0
    4.0620   -0.7460   -1.1560 C   0  0  0  0  0  0  0  0  0  0  0  0
    4.9120    1.0050    0.4100 C   0  0  0  0  0  0  0  0  0  0  0  0
   -4.6800   -0.4710    1.4190 Cl  0  0  0  0  0  0  0  0  0  0  0  0
   -5.7020    2.1530    0.9930 H   0  0  0  0  0  0  0  0  0  0  0  0
   -4.9420    3.9840   -0.4650 H   0  0  0  0  0  0  0  0  0  0  0  0
   -2.9590    3.6850   -1.8920 H   0  0  0  0  0  0  0  0  0  0  0  0
   -1.7280    1.5540   -1.8630 H   0  0  0  0  0  0  0  0  0  0  0  0
   -2.0760   -3.8070   -0.4760 H   0  0  0  0  0  0  0  0  0  0  0  0
   -0.0940    1.1280   -0.1430 H   0  0  0  0  0  0  0  0  0  0  0  0
    2.4550    1.3790   -0.8100 H   0  0  0  0  0  0  0  0  0  0  0  0
    2.3030    1.3240    0.9630 H   0  0  0  0  0  0  0  0  0  0  0  0
    3.7590   -0.7240    0.9770 H   0  0  0  0  0  0  0  0  0  0  0  0
    3.2650   -1.4670   -1.3370 H   0  0  0  0  0  0  0  0  0  0  0  0
    4.0960   -0.0290   -1.9760 H   0  0  0  0  0  0  0  0  0  0  0  0
    5.0160   -1.2680   -1.0900 H   0  0  0  0  0  0  0  0  0  0  0  0
  2  3  2  0  0  0  0
  3  4  1  0  0  0  0
  1  2  1  0  0  0  0
  4  6  2  0  0  0  0
 21 22  1  0  0  0  0
  1 24  1  0  0  0  0
  1  8  2  0  0  0  0
  6  8  1  0  0  0  0
  8 10  1  0  0  0  0
 20 21  1  0  0  0  0
 21 23  1  0  0  0  0
 16 20  1  0  0  0  0
  9 23  1  0  0  0  0
 15 16  1  0  0  0  0
 13 15  1  0  0  0  0
  7 23  1  0  0  0  0
  5 23  1  0  0  0  0
 10 13  1  0  0  0  0
 10 11  1  0  0  0  0
 16 17  2  0  0  0  0
 13 14  2  0  0  0  0
 11 12  2  0  0  0  0
 17 18  1  0  0  0  0
 12 14  1  0  0  0  0
 14 18  1  0  0  0  0
 18 19  2  0  0  0  0
  2 25  1  0  0  0  0
  3 26  1  0  0  0  0
  4 27  1  0  0  0  0
  6 28  1  0  0  0  0
 12 29  1  0  0  0  0
 15 30  1  0  0  0  0
 20 31  1  0  0  0  0
 20 32  1  0  0  0  0
 21 33  1  0  0  0  0
 22 34  1  0  0  0  0
 22 35  1  0  0  0  0
 22 36  1  0  0  0  0
M  END
> <OPENEYE_ISO_SMILES>
C[C@H](Cc1[nH]c2c(cnn2c3ccccc3Cl)c(=O)n1)C(F)(F)F

> <OPENEYE_INCHI>
InChI=1S/C15H12ClF3N4O/c1-8(15(17,18)19)6-12-21-13-9(14(24)22-12)7-20-23(13)11-5-3-2-4-10(11)16/h2-5,7-8H,6H2,1H3,(H,21,22,24)/t8-/m1/s1

> <OPENEYE_INCHIKEY>
FFPXPXOAFQCNBS-MRVPVSSYSA-N

> <FORMULA>
C15H12ClF3N4O

$$$$
